Version 4
SHEET 1 880 680
WIRE -304 -144 -304 -160
WIRE -208 -144 -208 -192
WIRE 336 -96 176 -96
WIRE 16 -80 16 -144
WIRE 240 -16 240 -48
WIRE 176 0 176 -96
WIRE 208 0 176 0
WIRE 336 16 336 -96
WIRE 336 16 272 16
WIRE 480 16 416 16
WIRE -304 32 -304 -64
WIRE -208 32 -208 -64
WIRE -208 32 -304 32
WIRE -80 32 -176 32
WIRE -48 32 -80 32
WIRE 16 32 16 0
WIRE 208 32 16 32
WIRE -80 64 -80 32
WIRE 240 64 240 48
WIRE 480 64 480 16
WIRE -176 80 -176 32
WIRE -16 144 -80 144
WIRE 480 176 480 144
WIRE -304 192 -304 32
WIRE -176 192 -176 160
WIRE -176 192 -304 192
WIRE -16 192 -16 144
WIRE -16 192 -176 192
WIRE -304 256 -304 192
FLAG 240 64 0
FLAG -304 256 0
FLAG -304 -160 9V
IOPIN -304 -160 Out
FLAG 240 -48 9V
IOPIN 240 -48 Out
FLAG -208 -192 2V5
IOPIN -208 -192 Out
FLAG 16 -144 2V5
IOPIN 16 -144 Out
FLAG 480 176 0
SYMBOL TL072 240 -48 R0
SYMATTR InstName U1
SYMBOL voltage -304 -160 R0
WINDOW 123 0 0 Left 0
WINDOW 39 0 0 Left 0
SYMATTR InstName V1
SYMATTR Value 5
SYMBOL voltage -176 64 R0
WINDOW 3 24 103 Left 2
WINDOW 123 24 124 Left 2
WINDOW 39 0 0 Left 0
SYMATTR InstName V2
SYMATTR Value SINE(0 0.5 1000)
SYMATTR Value2 AC 0.1
SYMBOL voltage -208 -160 R0
WINDOW 123 0 0 Left 0
WINDOW 39 0 0 Left 0
SYMATTR InstName V3
SYMATTR Value 2.5
SYMBOL res 0 -96 R0
SYMATTR InstName R1
SYMATTR Value 10000000
SYMBOL res 432 0 R90
WINDOW 0 0 56 VBottom 2
WINDOW 3 32 56 VTop 2
SYMATTR InstName R2
SYMATTR Value 1k
SYMBOL res 496 160 R180
WINDOW 0 36 76 Left 2
WINDOW 3 36 40 Left 2
SYMATTR InstName R3
SYMATTR Value 10000
SYMBOL cap 16 16 R90
WINDOW 0 0 32 VBottom 2
WINDOW 3 32 32 VTop 2
SYMATTR InstName C1
SYMATTR Value 100n
SYMBOL res -96 48 R0
SYMATTR InstName R4
SYMATTR Value 10000000
TEXT -368 280 Left 2 !.tran 10ms
TEXT -152 216 Left 2 ;.ac dec 10 1 10K
